/*--------------------------------*- C++ -*----------------------------------*\
| =========                 |                                                 |
| \\      /  F ield         | OpenFOAM: The Open Source CFD Toolbox           |
|  \\    /   O peration     | Version:  v2112                                 |
|   \\  /    A nd           | Website:  www.openfoam.com                      |
|    \\/     M anipulation  |                                                 |
\*---------------------------------------------------------------------------*/
FoamFile
{
    version     2.0;
    format      ascii;
    class       dictionary;
    location    "system";
    object      controlDict;
}
// * * * * * * * * * * * * * * * * * * * * * * * * * * * * * * * * * * * * * //

application     interMixingFoam;

startFrom       latestTime;

startTime       0;

stopAt          endTime;

endTime         2;

deltaT          0.0001;

writeControl    adjustableRunTime;

writeInterval   0.01;

purgeWrite      200;

writeFormat     binary;

writePrecision  12;

writeCompression off;

timeFormat      general;

timePrecision   12;

runTimeModifiable yes;

adjustTimeStep  on;

maxCo           0.9;

maxAlphaCo      0.9;

maxDeltaT       0.001;

libs            ();

functions
{
    surfaceSampling
    {
        type            surfaces;
        libs            (sampling);
        writeControl    runTime;
        writeInterval   0.005;

        interpolationScheme cellPointWallModified;

        surfaceFormat ensight;

        formatOptions
        {
            vtp
            {
                format binary;
            }
        }

        // Fields to be sampled
        fields
        (
            U
            k
            omega
            nut
            alpha.water
            alpha.sugar
            alphas
            p_rgh
        );

        surfaces
        {
            freeSurface
            {
                type            isoSurface;
                isoField        alpha.water;
                isoValue        0.5;
                interpolate     true;
            }
            sugarSurface
            {
                type            isoSurface;
                isoField        alpha.sugar;
                isoValue        0.05;
                interpolate     true;
            }
            teaspoon
            {
                type            patch;
                patches         (teaspoon);
                interpolate     true;
            }
        }
    }

}

// ************************************************************************* //
